<routes>
    <vType id="egocar" vClass="passenger" accel="20" decel="30" apparentDecel="30" emergencyDecel="30" minGap="2.5" maxSpeed="100" speedFactor="1" speedDev="0" sigma="0" tau="1.0" length="4.3" width="1.8" color="1,1,1" imgFile="500x.png" maxVisibility="110" leaderDecel="3"/>
    <vType id="normalcar" vClass="passenger" maxSpeed="15" speedFactor="1" speedDev="0.2" sigma="0.5" latAlignment="center" lcSublane="100" decel="3" leaderDecel="3"/>
    <vType id="slownormalcar" vClass="passenger" maxSpeed="10" speedFactor="1" speedDev="0.1" sigma="0.5" latAlignment="center" lcSublane="100" decel="3" leaderDecel="3"/>
    <vType id="fastnormalcar" vClass="passenger" maxSpeed="20" speedFactor="1" speedDev="0.1" sigma="0.5" latAlignment="center" lcSublane="100" decel="3" leaderDecel="3"/>
    <vType id="sportycar" vClass="passenger" maxSpeed="20" speedFactor="1" speedDev="0.05" sigma="0.1" latAlignment="center" lcSublane="100" decel="3" leaderDecel="3"/>
    <vType id="coach" vClass="coach"  maxSpeed="10" speedFactor="0.7" speedDev="0.05" sigma="0.5" latAlignment="center" lcSublane="100" decel="3" leaderDecel="3"/>
    <vType id="trailer" vClass="trailer"  maxSpeed="10" speedFactor="0.65" speedDev="0.05" sigma="0.5" latAlignment="center" lcSublane="100" decel="3" leaderDecel="3"/>

    <flow id="normal_slow_base" type="slownormalcar" begin="0" end="1000" probability="0.08" from="entry" to="exit" departPos="random" departLane="random" departSpeed="10" color="blue" />
    <flow id="normal_fast_base" type="fastnormalcar" begin="0" end="1000" probability="0.1" from="entry" to="exit" departPos="random" departLane="random" departSpeed="15" color="blue" />
    <flow id="normal_base" type="normalcar" begin="0" end="1000" probability="0.15" from="entry" to="exit" departPos="random" departLane="random" departSpeed="10" color="blue" />
    <flow id="sporty_base" type="sportycar" begin="0" end="1000" probability="0.08" from="entry" to="exit" departPos="random" departLane="random" departSpeed="15" color="green" />
    <flow id="trailer_base" type="trailer" begin="0" end="1000" probability="0.01" from="entry" to="exit" departPos="random" departLane="random" departSpeed="10" color="yellow" />
    <flow id="coach_base" type="coach" begin="0" end="1000" probability="0.01" from="entry" to="exit" departPos="random" departLane="random" departSpeed="10" color="yellow"/>
    
    <route id="route0" edges="edge2 edge3 exit" />
    <vehicle id="ego" type="egocar" depart="100" route="route0" from="edge2" to="exit" departPos="random" departLane="random" departSpeed="5"  />
</routes>
