<?xml version="1.0" encoding="UTF-8"?><routes>	<vType accel="1.0" apparentDecel="3" carFollowModel="RedVisibility" color="1,1,1" decel="3" emergencyDecel="3" id="egocar" imgFile="500x.png" length="4.3" maxSpeed="30.6" maxVisibility="110" minGap="12.0" sigma="0" speedDev="0" speedFactor="1" tau="1.0" vClass="passenger" width="1.8" leaderDecel="3"/>        <vType accel="3.0" decel="3.0" id="Other" length="4.0" width="2.0" minGap="2.5" maxSpeed="36.1" sigma="0.5" color="green" />                       <route id="right" edges=" 448259420#3 376643565#1 376643565#2 gneE0" />        <route id="down" edges=" 376643572#2 376643565#2 376643565#0 -448259420#3 " />	<route id="up" edges=" -gneE0 376643565#0 376643565#1 -376643572#2 " />	        <flows>		<flow id="flowRight" begin="0" end="36000" type="Other" route="right" probability=".1" departLane="0"/>        	<flow id="flowLeft" begin="0" end="36000" type="Other" route="down" probability=".1" departLane="0"/>		<!--<flow id="flowDown" begin="0" end="36000" type="Other" route="down" probability=".2" departLane="0"/>-->		<!--<flow id="flowUp" begin="0" end="36000" type="Other" route="up" probability=".08" departLane="0"/>-->        </flows>        <vehicle id="ego" type="egocar" route="up" depart="20" departSpeed="1.0" departLane="0" /></routes>