<?xml version="1.0" encoding="UTF-8"?><routes>	<vType accel="1.0" apparentDecel="3" carFollowModel="Krauss" color="1,1,1" decel="3" emergencyDecel="3" id="egocar" imgFile="500x.png" length="4.3" maxSpeed="30.6" minGap="12.0" sigma="0" speedDev="0" speedFactor="1" tau="1.0" vClass="passenger" width="1.8"/>        <vType accel="3.0" decel="3.0" id="Other" length="4.0" width="2.0" minGap="2.5" maxSpeed="36.1" sigma="0.5" color="green" />                       <route id="left" edges=" 1i 2o " />        <route id="right" edges=" 2i 1o " />        <route id="down" edges=" 2i 3o " />	<route id="up" edges=" 3i 1o " />        <flows>		<flow id="flowRight" begin="0" end="36000" type="Other" route="right" probability=".1" departLane="0"/>        	<flow id="flowLeft" begin="0" end="36000" type="Other" route="left" probability=".1" departLane="0"/>        </flows>        <vehicle id="ego" type="egocar" route="up" depart="20" departSpeed="5.0" departLane="0" departPos="100" /></routes>