<?xml version="1.0" encoding="UTF-8"?>

<!-- generated on 2026-02-11T18:23:32.687291+01:00 by Eclipse SUMO netedit v1_26_0+0121-78134680424
-->

<routes xmlns:xsi="http://www.w3.org/2001/XMLSchema-instance" xsi:noNamespaceSchemaLocation="http://sumo.dlr.de/xsd/routes_file.xsd">
    <!-- Vehicles, persons and containers (sorted by depart) -->
    <trip id="ego" depart="0.00" fromJunction="J4" toJunction="J5"/>
    <flow id="f_0" begin="0.00" end="3600.00" perHour="300.00" fromJunction="J13" toJunction="J5"/>
</routes>
