<?xml version="1.0" encoding="UTF-8"?>

<!-- generated on mer 28 nov 2018 17:15:52 CET by Eclipse SUMO netedit Version 1.0.1
<configuration xmlns:xsi="http://www.w3.org/2001/XMLSchema-instance" xsi:noNamespaceSchemaLocation="http://sumo.dlr.de/xsd/netconvertConfiguration.xsd">

    <input>
        <sumo-net-file value="/home/riccardo/thesis/code/highway/highway_ultimate?/polimi_decisionmaker/networks/highway_fast/highway.net.xml"/>
    </input>

    <output>
        <output-file value="/home/riccardo/thesis/code/highway/highway_ultimate?/polimi_decisionmaker/networks/highway_fast/highway.net.xml"/>
    </output>

    <processing>
        <offset.disable-normalization value="true"/>
        <lefthand value="false"/>
    </processing>

    <junctions>
        <no-internal-links value="true"/>
        <no-turnarounds value="true"/>
        <junctions.corner-detail value="0"/>
        <junctions.limit-turn-speed value="-1"/>
        <rectangular-lane-cut value="false"/>
    </junctions>

    <pedestrian>
        <walkingareas value="false"/>
    </pedestrian>

</configuration>
-->

<net version="1.0" xmlns:xsi="http://www.w3.org/2001/XMLSchema-instance" xsi:noNamespaceSchemaLocation="http://sumo.dlr.de/xsd/net_file.xsd">

    <location netOffset="0.00,0.00" convBoundary="0.00,0.00,0.00,2000.00" origBoundary="-10000000000.00,-10000000000.00,10000000000.00,10000000000.00" projParameter="!"/>

    <edge id="edge1" from="gneJ1" to="gneJ2" priority="1" length="196.00">
        <lane id="edge1_0" index="0" speed="50" length="196.00" shape="8.00,2.00 8.00,198.00"/>
        <lane id="edge1_1" index="1" speed="50" length="196.00" shape="4.80,2.00 4.80,198.00"/>
        <lane id="edge1_2" index="2" speed="50" length="196.00" shape="1.60,2.00 1.60,198.00"/>
    </edge>
    <edge id="edge2" from="gneJ2" to="gneJ3" priority="1">
        <lane id="edge2_0" index="0" speed="50" length="2.00" shape="8.00,198.00 8.00,200.00"/>
        <lane id="edge2_1" index="1" speed="50" length="2.00" shape="4.80,198.00 4.80,200.00"/>
        <lane id="edge2_2" index="2" speed="50" length="2.00" shape="1.60,198.00 1.60,200.00"/>
    </edge>
    <edge id="edge3" from="gneJ3" to="gneJ0" priority="1" length="1800.00">
        <lane id="edge3_0" index="0" speed="50" length="1800.00" shape="8.00,200.00 8.00,1998.00"/>
        <lane id="edge3_1" index="1" speed="50" length="1800.00" shape="4.80,200.00 4.80,1998.00"/>
        <lane id="edge3_2" index="2" speed="50" length="1800.00" shape="1.60,200.00 1.60,1998.00"/>
    </edge>
    <edge id="entry" from="entry" to="gneJ1" priority="1" length="2.00">
        <lane id="entry_0" index="0" speed="50" length="2.00" shape="8.00,0.00 8.00,2.00"/>
        <lane id="entry_1" index="1" speed="50" length="2.00" shape="4.80,0.00 4.80,2.00"/>
        <lane id="entry_2" index="2" speed="50" length="2.00" shape="1.60,0.00 1.60,2.00"/>
    </edge>
    <edge id="exit" from="gneJ0" to="exit" priority="1" length="2.00">
        <lane id="exit_0" index="0" speed="50" length="2.00" shape="8.00,1998.00 8.00,2000.00"/>
        <lane id="exit_1" index="1" speed="50" length="2.00" shape="4.80,1998.00 4.80,2000.00"/>
        <lane id="exit_2" index="2" speed="50" length="2.00" shape="1.60,1998.00 1.60,2000.00"/>
    </edge>

    <junction id="entry" type="dead_end" x="0.00" y="0.00" incLanes="" intLanes="" shape="0.00,0.00 9.60,0.00"/>
    <junction id="exit" type="dead_end" x="0.00" y="2000.00" incLanes="exit_0 exit_1 exit_2" intLanes="" shape="9.60,2000.00 0.00,2000.00"/>
    <junction id="gneJ0" type="priority" x="0.00" y="1998.00" incLanes="edge3_0 edge3_1 edge3_2" intLanes="" shape="0.00,1998.00 9.60,1998.00 0.00,1998.00">
        <request index="0" response="000" foes="000"/>
        <request index="1" response="000" foes="000"/>
        <request index="2" response="000" foes="000"/>
    </junction>
    <junction id="gneJ1" type="priority" x="0.00" y="2.00" incLanes="entry_0 entry_1 entry_2" intLanes="" shape="0.00,2.00 9.60,2.00 0.00,2.00">
        <request index="0" response="000" foes="000"/>
        <request index="1" response="000" foes="000"/>
        <request index="2" response="000" foes="000"/>
    </junction>
    <junction id="gneJ2" type="priority" x="0.00" y="198.00" incLanes="edge1_0 edge1_1 edge1_2" intLanes="" shape="0.00,198.00 9.60,198.00 0.00,198.00">
        <request index="0" response="000" foes="000"/>
        <request index="1" response="000" foes="000"/>
        <request index="2" response="000" foes="000"/>
    </junction>
    <junction id="gneJ3" type="priority" x="0.00" y="200.00" incLanes="edge2_0 edge2_1 edge2_2" intLanes="" shape="0.00,200.00 9.60,200.00 0.00,200.00">
        <request index="0" response="000" foes="000"/>
        <request index="1" response="000" foes="000"/>
        <request index="2" response="000" foes="000"/>
    </junction>

    <connection from="edge1" to="edge2" fromLane="0" toLane="0" dir="s" state="M"/>
    <connection from="edge1" to="edge2" fromLane="1" toLane="1" dir="s" state="M"/>
    <connection from="edge1" to="edge2" fromLane="2" toLane="2" dir="s" state="M"/>
    <connection from="edge2" to="edge3" fromLane="0" toLane="0" dir="s" state="M"/>
    <connection from="edge2" to="edge3" fromLane="1" toLane="1" dir="s" state="M"/>
    <connection from="edge2" to="edge3" fromLane="2" toLane="2" dir="s" state="M"/>
    <connection from="edge3" to="exit" fromLane="0" toLane="0" dir="s" state="M"/>
    <connection from="edge3" to="exit" fromLane="1" toLane="1" dir="s" state="M"/>
    <connection from="edge3" to="exit" fromLane="2" toLane="2" dir="s" state="M"/>
    <connection from="entry" to="edge1" fromLane="0" toLane="0" dir="s" state="M"/>
    <connection from="entry" to="edge1" fromLane="1" toLane="1" dir="s" state="M"/>
    <connection from="entry" to="edge1" fromLane="2" toLane="2" dir="s" state="M"/>

</net>
