<?xml version="1.0" encoding="UTF-8"?>

<!-- generated on 2026-02-11T18:34:30.068464+01:00 by Eclipse SUMO sumo v1_26_0+0121-78134680424
-->

<sumoConfiguration xmlns:xsi="http://www.w3.org/2001/XMLSchema-instance" xsi:noNamespaceSchemaLocation="http://sumo.dlr.de/xsd/sumoConfiguration.xsd">

    <input>
        <net-file value="cross.net.xml"/>
        <route-files value="cross.rou.xml"/>
        <junction-taz value="true"/>
    </input>

</sumoConfiguration>
