<?xml version="1.0" encoding="UTF-8"?>

<!-- generated on gio 06 dic 2018 12:12:08 CET by Eclipse SUMO netedit Version 1.0.1
<configuration xmlns:xsi="http://www.w3.org/2001/XMLSchema-instance" xsi:noNamespaceSchemaLocation="http://sumo.dlr.de/xsd/netconvertConfiguration.xsd">

    <input>
        <sumo-net-file value="/home/riccardo/thesis/code/highway/highway_v111_pred/polimi_decisionmaker/networks/mi_to_few_cars/osm.net.xml"/>
    </input>

    <output>
        <output-file value="/home/riccardo/thesis/code/highway/highway_v111_pred/polimi_decisionmaker/networks/mi_to_few_cars/osm.net.xml"/>
        <output.street-names value="true"/>
    </output>

    <processing>
        <offset.disable-normalization value="true"/>
        <lefthand value="false"/>
    </processing>

    <junctions>
        <no-turnarounds value="true"/>
        <junctions.corner-detail value="5"/>
        <junctions.limit-turn-speed value="-1"/>
        <rectangular-lane-cut value="false"/>
    </junctions>

    <pedestrian>
        <walkingareas value="false"/>
    </pedestrian>

</configuration>
-->

<net version="1.0" junctionCornerDetail="5" xmlns:xsi="http://www.w3.org/2001/XMLSchema-instance" xsi:noNamespaceSchemaLocation="http://sumo.dlr.de/xsd/net_file.xsd">

    <location netOffset="-399130.48,-4966209.00" convBoundary="17541.80,0.00,27467.08,10496.65" origBoundary="7.705203,44.845516,8.089867,45.023230" projParameter="+proj=utm +zone=32 +ellps=WGS84 +datum=WGS84 +units=m +no_defs"/>

    <type id="highway.bridleway" priority="1" numLanes="1" speed="2.78" allow="pedestrian" oneway="1" width="2.00"/>
    <type id="highway.bus_guideway" priority="1" numLanes="1" speed="8.33" allow="bus" oneway="1"/>
    <type id="highway.cycleway" priority="1" numLanes="1" speed="5.56" allow="bicycle" oneway="0" width="1.00"/>
    <type id="highway.footway" priority="1" numLanes="1" speed="2.78" allow="pedestrian" oneway="1" width="2.00"/>
    <type id="highway.ford" priority="1" numLanes="1" speed="2.78" allow="army" oneway="0"/>
    <type id="highway.living_street" priority="3" numLanes="1" speed="2.78" disallow="tram rail_urban rail rail_electric ship" oneway="0"/>
    <type id="highway.motorway" priority="13" numLanes="2" speed="44.44" allow="private emergency authority army vip passenger hov taxi bus coach delivery truck trailer motorcycle evehicle custom1 custom2" oneway="1"/>
    <type id="highway.motorway_link" priority="12" numLanes="1" speed="22.22" allow="private emergency authority army vip passenger hov taxi bus coach delivery truck trailer motorcycle evehicle custom1 custom2" oneway="1"/>
    <type id="highway.path" priority="1" numLanes="1" speed="2.78" allow="bicycle pedestrian" oneway="1" width="2.00"/>
    <type id="highway.pedestrian" priority="1" numLanes="1" speed="2.78" allow="pedestrian" oneway="1" width="2.00"/>
    <type id="highway.primary" priority="9" numLanes="2" speed="27.78" disallow="tram rail_urban rail rail_electric ship" oneway="0"/>
    <type id="highway.primary_link" priority="8" numLanes="1" speed="22.22" disallow="tram rail_urban rail rail_electric ship" oneway="0"/>
    <type id="highway.raceway" priority="14" numLanes="2" speed="83.33" allow="vip" oneway="0"/>
    <type id="highway.residential" priority="4" numLanes="1" speed="13.89" disallow="tram rail_urban rail rail_electric ship" oneway="0"/>
    <type id="highway.secondary" priority="7" numLanes="2" speed="27.78" disallow="tram rail_urban rail rail_electric ship" oneway="0"/>
    <type id="highway.secondary_link" priority="6" numLanes="1" speed="22.22" disallow="tram rail_urban rail rail_electric ship" oneway="0"/>
    <type id="highway.service" priority="2" numLanes="1" speed="5.56" allow="delivery bicycle pedestrian" oneway="0"/>
    <type id="highway.services" priority="1" numLanes="1" speed="8.33" disallow="tram rail_urban rail rail_electric ship" oneway="0"/>
    <type id="highway.stairs" priority="1" numLanes="1" speed="1.39" allow="pedestrian" oneway="1" width="2.00"/>
    <type id="highway.step" priority="1" numLanes="1" speed="1.39" allow="pedestrian" oneway="1" width="2.00"/>
    <type id="highway.steps" priority="1" numLanes="1" speed="1.39" allow="pedestrian" oneway="1" width="2.00"/>
    <type id="highway.tertiary" priority="6" numLanes="1" speed="22.22" disallow="tram rail_urban rail rail_electric ship" oneway="0"/>
    <type id="highway.tertiary_link" priority="5" numLanes="1" speed="22.22" disallow="tram rail_urban rail rail_electric ship" oneway="0"/>
    <type id="highway.track" priority="1" numLanes="1" speed="5.56" disallow="tram rail_urban rail rail_electric ship" oneway="0"/>
    <type id="highway.trunk" priority="11" numLanes="2" speed="27.78" disallow="tram rail_urban rail rail_electric bicycle pedestrian ship" oneway="0"/>
    <type id="highway.trunk_link" priority="10" numLanes="1" speed="22.22" disallow="tram rail_urban rail rail_electric bicycle pedestrian ship" oneway="0"/>
    <type id="highway.unclassified" priority="5" numLanes="1" speed="13.89" disallow="tram rail_urban rail rail_electric ship" oneway="0"/>
    <type id="highway.unsurfaced" priority="1" numLanes="1" speed="8.33" disallow="tram rail_urban rail rail_electric ship" oneway="0"/>
    <type id="railway.light_rail" priority="15" numLanes="1" speed="27.78" allow="rail_urban" oneway="1"/>
    <type id="railway.preserved" priority="15" numLanes="1" speed="27.78" allow="rail" oneway="1"/>
    <type id="railway.rail" priority="15" numLanes="1" speed="83.33" allow="rail rail_electric" oneway="1"/>
    <type id="railway.subway" priority="15" numLanes="1" speed="27.78" allow="rail_urban" oneway="1"/>
    <type id="railway.tram" priority="15" numLanes="1" speed="13.89" allow="tram" oneway="1"/>

    <edge id=":gneJ1_0" function="internal">
        <lane id=":gneJ1_0_0" index="0" disallow="tram rail_urban rail rail_electric ship" speed="27.78" length="0.37" shape="27251.69,565.11 27251.50,565.49"/>
        <lane id=":gneJ1_0_1" index="1" disallow="tram rail_urban rail rail_electric ship" speed="27.78" length="0.37" shape="27248.82,563.69 27248.66,564.02"/>
        <lane id=":gneJ1_0_2" index="2" disallow="tram rail_urban rail rail_electric ship" speed="27.78" length="0.37" shape="27245.96,562.26 27245.81,562.54"/>
    </edge>
    <edge id=":gneJ1_3" function="internal">
        <lane id=":gneJ1_3_0" index="0" disallow="tram rail_urban rail rail_electric ship" speed="30.60" length="0.21" shape="27237.29,558.13 27237.36,557.99"/>
        <lane id=":gneJ1_3_1" index="1" disallow="tram rail_urban rail rail_electric ship" speed="30.60" length="0.21" shape="27240.13,559.60 27240.23,559.41"/>
        <lane id=":gneJ1_3_2" index="2" disallow="tram rail_urban rail rail_electric ship" speed="30.60" length="0.21" shape="27242.97,561.07 27243.09,560.84"/>
    </edge>
    <edge id=":gneJ10_0" function="internal">
        <lane id=":gneJ10_0_0" index="0" disallow="tram rail_urban rail rail_electric ship" speed="30.60" length="1.02" shape="20626.93,5813.22 20626.68,5812.00"/>
        <lane id=":gneJ10_0_1" index="1" disallow="tram rail_urban rail rail_electric ship" speed="30.60" length="1.02" shape="20630.04,5812.47 20629.83,5811.46"/>
        <lane id=":gneJ10_0_2" index="2" disallow="tram rail_urban rail rail_electric ship" speed="30.60" length="1.02" shape="20633.15,5811.71 20632.99,5810.93"/>
    </edge>
    <edge id=":gneJ10_3" function="internal">
        <lane id=":gneJ10_3_0" index="0" disallow="tram rail_urban rail rail_electric ship" speed="27.78" length="0.34" shape="20642.45,5809.33 20642.47,5809.44"/>
        <lane id=":gneJ10_3_1" index="1" disallow="tram rail_urban rail rail_electric ship" speed="27.78" length="0.34" shape="20639.30,5809.86 20639.36,5810.20"/>
        <lane id=":gneJ10_3_2" index="2" disallow="tram rail_urban rail rail_electric ship" speed="27.78" length="0.34" shape="20636.14,5810.40 20636.26,5810.95"/>
    </edge>
    <edge id=":gneJ2_0" function="internal">
        <lane id=":gneJ2_0_0" index="0" disallow="tram rail_urban rail rail_electric ship" speed="27.78" length="2.37" shape="26875.95,1482.99 26875.85,1483.85 26875.76,1484.43 26875.62,1485.01 26875.39,1485.84"/>
        <lane id=":gneJ2_0_1" index="1" disallow="tram rail_urban rail rail_electric ship" speed="27.78" length="2.37" shape="26872.77,1482.64 26872.69,1483.34 26872.61,1483.82 26872.50,1484.29 26872.31,1484.97"/>
        <lane id=":gneJ2_0_2" index="2" disallow="tram rail_urban rail rail_electric ship" speed="27.78" length="2.37" shape="26869.59,1482.29 26869.52,1482.83 26869.47,1483.20 26869.38,1483.57 26869.23,1484.10"/>
    </edge>
    <edge id=":gneJ2_3" function="internal">
        <lane id=":gneJ2_3_0" index="0" disallow="tram rail_urban rail rail_electric ship" speed="30.60" length="0.79" shape="26860.00,1481.49 26860.02,1481.41 26860.03,1481.36 26860.04,1481.31 26860.05,1481.23"/>
        <lane id=":gneJ2_3_1" index="1" disallow="tram rail_urban rail rail_electric ship" speed="30.60" length="0.79" shape="26863.08,1482.36 26863.14,1482.13 26863.17,1481.97 26863.20,1481.82 26863.23,1481.58"/>
        <lane id=":gneJ2_3_2" index="2" disallow="tram rail_urban rail rail_electric ship" speed="30.60" length="0.79" shape="26866.15,1483.23 26866.26,1482.85 26866.32,1482.59 26866.36,1482.32 26866.41,1481.94"/>
    </edge>
    <edge id=":gneJ3_0" function="internal">
        <lane id=":gneJ3_0_0" index="0" disallow="tram rail_urban rail rail_electric ship" speed="27.78" length="0.10" shape="25030.79,2289.50 25030.79,2289.50"/>
        <lane id=":gneJ3_0_1" index="1" disallow="tram rail_urban rail rail_electric ship" speed="27.78" length="0.10" shape="25030.63,2286.30 25030.63,2286.30"/>
        <lane id=":gneJ3_0_2" index="2" disallow="tram rail_urban rail rail_electric ship" speed="27.78" length="0.10" shape="25030.46,2283.11 25030.46,2283.11"/>
    </edge>
    <edge id=":gneJ3_3" function="internal">
        <lane id=":gneJ3_3_0" index="0" disallow="tram rail_urban rail rail_electric ship" speed="30.60" length="0.10" shape="25029.97,2273.52 25029.97,2273.52"/>
        <lane id=":gneJ3_3_1" index="1" disallow="tram rail_urban rail rail_electric ship" speed="30.60" length="0.10" shape="25030.13,2276.72 25030.13,2276.72"/>
        <lane id=":gneJ3_3_2" index="2" disallow="tram rail_urban rail rail_electric ship" speed="30.60" length="0.10" shape="25030.30,2279.91 25030.30,2279.91"/>
    </edge>
    <edge id=":gneJ4_0" function="internal">
        <lane id=":gneJ4_0_0" index="0" disallow="tram rail_urban rail rail_electric ship" speed="27.78" length="0.49" shape="23829.96,2343.85 23829.92,2343.87 23829.89,2343.88 23829.86,2343.90 23829.82,2343.92"/>
        <lane id=":gneJ4_0_1" index="1" disallow="tram rail_urban rail rail_electric ship" speed="27.78" length="0.49" shape="23828.61,2340.95 23828.48,2341.01 23828.39,2341.06 23828.30,2341.11 23828.18,2341.18"/>
        <lane id=":gneJ4_0_2" index="2" disallow="tram rail_urban rail rail_electric ship" speed="27.78" length="0.49" shape="23827.25,2338.05 23827.03,2338.16 23826.88,2338.23 23826.74,2338.31 23826.53,2338.43"/>
    </edge>
    <edge id=":gneJ4_3" function="internal">
        <lane id=":gneJ4_3_0" index="0" disallow="tram rail_urban rail rail_electric ship" speed="30.60" length="1.46" shape="23821.60,2330.20 23822.06,2329.92 23822.38,2329.75 23822.70,2329.58 23823.18,2329.36"/>
        <lane id=":gneJ4_3_1" index="1" disallow="tram rail_urban rail rail_electric ship" speed="30.60" length="1.46" shape="23823.25,2332.94 23823.62,2332.72 23823.88,2332.57 23824.14,2332.44 23824.54,2332.26"/>
        <lane id=":gneJ4_3_2" index="2" disallow="tram rail_urban rail rail_electric ship" speed="30.60" length="1.46" shape="23824.89,2335.69 23825.18,2335.51 23825.38,2335.40 23825.59,2335.30 23825.89,2335.15"/>
    </edge>
    <edge id=":gneJ5_0" function="internal">
        <lane id=":gneJ5_0_0" index="0" disallow="tram rail_urban rail rail_electric ship" speed="30.60" length="0.35" shape="23044.99,3064.10 23044.99,3063.99"/>
        <lane id=":gneJ5_0_1" index="1" disallow="tram rail_urban rail rail_electric ship" speed="30.60" length="0.35" shape="23048.19,3064.08 23048.18,3063.73"/>
        <lane id=":gneJ5_0_2" index="2" disallow="tram rail_urban rail rail_electric ship" speed="30.60" length="0.35" shape="23051.39,3064.06 23051.37,3063.47"/>
    </edge>
    <edge id=":gneJ5_3" function="internal">
        <lane id=":gneJ5_3_0" index="0" disallow="tram rail_urban rail rail_electric ship" speed="27.78" length="1.06" shape="23060.94,3062.71 23060.99,3064.01"/>
        <lane id=":gneJ5_3_1" index="1" disallow="tram rail_urban rail rail_electric ship" speed="27.78" length="1.06" shape="23057.75,3062.96 23057.79,3064.03"/>
        <lane id=":gneJ5_3_2" index="2" disallow="tram rail_urban rail rail_electric ship" speed="27.78" length="1.06" shape="23054.56,3063.22 23054.59,3064.05"/>
    </edge>
    <edge id=":gneJ6_0" function="internal">
        <lane id=":gneJ6_0_0" index="0" disallow="tram rail_urban rail rail_electric ship" speed="27.78" length="0.34" shape="21900.76,3110.78 21900.65,3110.82"/>
        <lane id=":gneJ6_0_1" index="1" disallow="tram rail_urban rail rail_electric ship" speed="27.78" length="0.34" shape="21899.76,3107.74 21899.45,3107.85"/>
        <lane id=":gneJ6_0_2" index="2" disallow="tram rail_urban rail rail_electric ship" speed="27.78" length="0.34" shape="21898.77,3104.70 21898.24,3104.89"/>
    </edge>
    <edge id=":gneJ6_3" function="internal">
        <lane id=":gneJ6_3_0" index="0" disallow="tram rail_urban rail rail_electric ship" speed="30.60" length="1.01" shape="21894.62,3096.00 21895.78,3095.57"/>
        <lane id=":gneJ6_3_1" index="1" disallow="tram rail_urban rail rail_electric ship" speed="30.60" length="1.01" shape="21895.83,3098.96 21896.78,3098.61"/>
        <lane id=":gneJ6_3_2" index="2" disallow="tram rail_urban rail rail_electric ship" speed="30.60" length="1.01" shape="21897.03,3101.93 21897.77,3101.65"/>
    </edge>
    <edge id=":gneJ7_0" function="internal">
        <lane id=":gneJ7_0_0" index="0" disallow="tram rail_urban rail rail_electric ship" speed="27.78" length="0.27" shape="21273.86,4058.60 21273.75,4058.83"/>
        <lane id=":gneJ7_0_1" index="1" disallow="tram rail_urban rail rail_electric ship" speed="27.78" length="0.27" shape="21271.00,4057.17 21270.88,4057.41"/>
        <lane id=":gneJ7_0_2" index="2" disallow="tram rail_urban rail rail_electric ship" speed="27.78" length="0.27" shape="21268.14,4055.73 21268.01,4055.99"/>
    </edge>
    <edge id=":gneJ7_3" function="internal">
        <lane id=":gneJ7_3_0" index="0" disallow="tram rail_urban rail rail_electric ship" speed="30.60" length="0.33" shape="21259.40,4051.74 21259.56,4051.43"/>
        <lane id=":gneJ7_3_1" index="1" disallow="tram rail_urban rail rail_electric ship" speed="30.60" length="0.33" shape="21262.27,4053.16 21262.42,4052.86"/>
        <lane id=":gneJ7_3_2" index="2" disallow="tram rail_urban rail rail_electric ship" speed="30.60" length="0.33" shape="21265.14,4054.57 21265.28,4054.30"/>
    </edge>
    <edge id=":gneJ9_0" function="internal">
        <lane id=":gneJ9_0_0" index="0" disallow="tram rail_urban rail rail_electric ship" speed="27.78" length="0.28" shape="20849.06,4902.74 20848.94,4902.98"/>
        <lane id=":gneJ9_0_1" index="1" disallow="tram rail_urban rail rail_electric ship" speed="27.78" length="0.28" shape="20846.21,4901.29 20846.08,4901.55"/>
        <lane id=":gneJ9_0_2" index="2" disallow="tram rail_urban rail rail_electric ship" speed="27.78" length="0.28" shape="20843.36,4899.85 20843.22,4900.11"/>
    </edge>
    <edge id=":gneJ9_3" function="internal">
        <lane id=":gneJ9_3_0" index="0" disallow="tram rail_urban rail rail_electric ship" speed="30.60" length="0.32" shape="20834.64,4895.80 20834.79,4895.51"/>
        <lane id=":gneJ9_3_1" index="1" disallow="tram rail_urban rail rail_electric ship" speed="30.60" length="0.32" shape="20837.50,4897.24 20837.65,4896.96"/>
        <lane id=":gneJ9_3_2" index="2" disallow="tram rail_urban rail rail_electric ship" speed="30.60" length="0.32" shape="20840.36,4898.68 20840.50,4898.40"/>
    </edge>

    <edge id="-32766801#0.0" from="2131173860" to="gneJ10" name="Strada Provinciale 19" priority="7" type="highway.secondary" shape="17541.80,10496.65 17550.51,10476.57 17841.85,9832.44 17965.83,9558.51 18362.65,8681.71 18646.40,8054.75 18649.99,8046.64 18655.35,8034.95 18802.34,7709.72 18803.62,7706.89 19117.80,7011.77 19143.52,6966.44 19182.34,6912.52 19196.09,6897.05 19260.53,6816.97 19375.40,6673.95 19441.40,6597.91 19482.10,6565.52 19483.88,6564.37 19531.25,6533.70 19673.45,6443.78 19704.66,6427.04 19731.40,6418.99 19752.92,6419.00 19774.60,6423.52 19789.88,6432.99 19813.24,6455.60 19835.78,6474.56 19854.94,6482.83 19859.47,6483.71 19877.50,6487.26 19893.96,6487.02 19910.91,6482.12 19922.09,6478.01 19926.37,6476.44 19944.59,6463.41 20003.58,6400.97 20028.01,6379.41 20085.12,6343.91 20128.39,6308.42 20196.23,6247.84 20256.62,6206.00 20372.27,6138.34 20404.96,6119.22 20414.51,6113.64 20590.41,6009.27 20620.55,5987.89 20637.58,5966.76 20649.79,5939.50 20654.10,5911.27 20652.51,5884.49 20634.62,5811.00">
        <lane id="-32766801#0.0_0" index="0" disallow="tram rail_urban rail rail_electric ship" speed="30.60" length="5948.52" shape="17534.46,10493.47 17543.20,10473.33 17834.56,9829.14 17958.54,9555.21 18355.36,8678.41 18639.11,8051.45 18642.70,8043.35 18648.07,8031.64 18795.05,7706.43 18796.33,7703.59 19110.66,7008.14 19136.78,6962.12 19176.09,6907.51 19189.98,6891.88 19254.30,6811.96 19369.26,6668.82 19435.84,6592.11 19477.43,6559.01 19479.53,6557.65 19526.94,6526.96 19669.42,6436.87 19701.59,6419.61 19730.22,6410.99 19753.75,6411.00 19777.61,6415.98 19794.83,6426.64 19818.60,6449.66 19840.03,6467.68 19857.32,6475.14 19861.01,6475.86 19878.22,6479.25 19892.77,6479.04 19908.42,6474.51 19919.33,6470.50 19922.60,6469.30 19939.31,6457.35 19998.01,6395.21 20023.22,6372.97 20080.45,6337.39 20123.19,6302.34 20191.27,6241.54 20252.32,6199.25 20368.23,6131.43 20400.92,6112.31 20410.45,6106.75 20586.05,6002.56 20615.02,5982.01 20630.70,5962.55 20642.05,5937.22 20646.06,5910.90 20644.57,5885.68 20626.93,5813.22">
            <param key="origId" value="32766801"/>
        </lane>
        <lane id="-32766801#0.0_1" index="1" disallow="tram rail_urban rail rail_electric ship" speed="30.60" length="5948.52" shape="17537.40,10494.74 17546.12,10474.63 17837.48,9830.46 17961.46,9556.53 18358.28,8679.73 18642.03,8052.77 18645.61,8044.67 18650.98,8032.96 18797.97,7707.74 18799.25,7704.91 19113.52,7009.59 19139.47,6963.85 19178.59,6909.52 19192.42,6893.95 19256.79,6813.96 19371.71,6670.87 19438.06,6594.43 19479.30,6561.62 19481.27,6560.34 19528.66,6529.66 19671.03,6439.63 19702.82,6422.58 19730.69,6414.19 19753.42,6414.20 19776.41,6418.99 19792.85,6429.18 19816.46,6452.03 19838.33,6470.43 19856.37,6478.22 19860.39,6479.00 19877.93,6482.45 19893.25,6482.23 19909.41,6477.56 19920.43,6473.50 19924.11,6472.16 19941.42,6459.78 20000.24,6397.52 20025.13,6375.55 20082.32,6340.00 20125.27,6304.77 20193.25,6244.06 20254.04,6201.95 20369.85,6134.20 20402.54,6115.08 20412.07,6109.50 20587.79,6005.24 20617.23,5984.36 20633.45,5964.23 20645.14,5938.13 20649.28,5911.05 20647.74,5885.21 20630.04,5812.47">
            <param key="origId" value="32766801"/>
        </lane>
        <lane id="-32766801#0.0_2" index="2" disallow="tram rail_urban rail rail_electric ship" speed="30.60" length="5948.52" shape="17540.33,10496.01 17549.05,10475.92 17840.39,9831.78 17964.37,9557.85 18361.19,8681.05 18644.94,8054.09 18648.53,8045.98 18653.89,8034.29 18800.88,7709.06 18802.16,7706.23 19116.37,7011.04 19142.17,6965.58 19181.09,6911.52 19194.87,6896.02 19259.28,6815.97 19374.17,6672.92 19440.29,6596.75 19481.17,6564.22 19483.01,6563.03 19530.39,6532.35 19672.64,6442.40 19704.05,6425.55 19731.16,6417.39 19753.09,6417.40 19775.20,6422.01 19790.87,6431.72 19814.31,6454.41 19836.63,6473.18 19855.42,6481.29 19859.78,6482.14 19877.64,6485.66 19893.72,6485.42 19910.41,6480.60 19921.54,6476.51 19925.62,6475.01 19943.53,6462.20 20002.47,6399.82 20027.05,6378.12 20084.19,6342.61 20127.35,6307.20 20195.24,6246.58 20255.76,6204.65 20371.46,6136.96 20404.15,6117.84 20413.70,6112.26 20589.54,6007.93 20619.44,5986.71 20636.20,5965.92 20648.24,5939.04 20652.49,5911.20 20650.92,5884.73 20633.15,5811.71">
            <param key="origId" value="32766801"/>
        </lane>
    </edge>
    <edge id="-32766801#0.10613" from="gneJ5" to="gneJ4" name="Strada Provinciale 19" priority="7" type="highway.secondary" shape="23052.99,3063.70 23044.41,2956.70 23050.73,2920.85 23065.89,2898.41 23089.17,2878.38 23224.91,2776.27 23297.59,2721.61 23311.12,2711.44 23475.20,2587.51 23478.65,2584.90 23722.32,2398.93 23826.13,2336.81">
        <lane id="-32766801#0.10613_0" index="0" disallow="tram rail_urban rail rail_electric ship" speed="30.60" length="1121.26" shape="23044.99,3063.99 23036.35,2956.32 23043.15,2917.78 23059.86,2893.04 23084.15,2872.14 23220.10,2769.88 23292.78,2715.22 23306.31,2705.05 23470.38,2581.13 23473.81,2578.53 23717.83,2392.30 23821.60,2330.20">
            <param key="origId" value="32766801"/>
        </lane>
        <lane id="-32766801#0.10613_1" index="1" disallow="tram rail_urban rail rail_electric ship" speed="30.60" length="1121.26" shape="23048.18,3063.73 23039.58,2956.47 23046.18,2919.01 23062.27,2895.19 23086.16,2874.64 23222.02,2772.43 23294.71,2717.77 23308.23,2707.61 23472.31,2583.68 23475.75,2581.08 23719.62,2394.95 23823.25,2332.94">
            <param key="origId" value="32766801"/>
        </lane>
        <lane id="-32766801#0.10613_2" index="2" disallow="tram rail_urban rail rail_electric ship" speed="30.60" length="1121.26" shape="23051.37,3063.47 23042.80,2956.62 23049.21,2920.24 23064.68,2897.34 23088.17,2877.13 23223.95,2774.99 23296.63,2720.33 23310.16,2710.16 23474.24,2586.23 23477.68,2583.63 23721.42,2397.60 23824.89,2335.69">
            <param key="origId" value="32766801"/>
        </lane>
    </edge>
    <edge id="-32766801#0.11730" from="gneJ4" to="gneJ3" name="Strada Provinciale 19" priority="7" type="highway.secondary" shape="23826.13,2336.81 24223.74,2150.65 24278.05,2135.03 24318.78,2136.41 24331.92,2131.85 24344.37,2123.66 24378.88,2079.51 24484.37,1912.22 24510.12,1893.19 24522.72,1889.29 24543.40,1891.86 24566.89,1907.50 24596.86,1946.09 24600.03,1950.18 24686.87,2084.00 24739.19,2156.50 24793.70,2231.27 24839.06,2274.61 24887.98,2287.74 24950.35,2285.62 25030.38,2281.51">
        <lane id="-32766801#0.11730_0" index="0" disallow="tram rail_urban rail rail_electric ship" speed="30.60" length="1566.02" shape="23823.18,2329.36 24220.92,2143.14 24277.06,2126.99 24317.56,2128.36 24328.36,2124.62 24338.88,2117.70 24372.33,2074.90 24478.41,1906.68 24506.46,1885.95 24522.00,1881.14 24546.26,1884.15 24572.41,1901.56 24603.18,1941.18 24606.56,1945.54 24693.47,2079.48 24745.67,2151.80 24799.74,2225.98 24843.11,2267.41 24888.90,2279.70 24950.01,2277.63 25029.97,2273.52">
            <param key="origId" value="32766801"/>
        </lane>
        <lane id="-32766801#0.11730_1" index="1" disallow="tram rail_urban rail rail_electric ship" speed="30.60" length="1566.02" shape="23824.54,2332.26 24222.05,2146.14 24277.45,2130.21 24318.05,2131.58 24329.78,2127.51 24341.07,2120.08 24374.95,2076.74 24480.79,1908.90 24507.92,1888.85 24522.29,1884.40 24545.12,1887.24 24570.20,1903.94 24600.65,1943.15 24603.95,1947.40 24690.83,2081.29 24743.08,2153.68 24797.33,2228.10 24841.49,2270.29 24888.53,2282.92 24950.15,2280.82 25030.13,2276.72">
            <param key="origId" value="32766801"/>
        </lane>
        <lane id="-32766801#0.11730_2" index="2" disallow="tram rail_urban rail rail_electric ship" speed="30.60" length="1566.02" shape="23825.89,2335.15 24223.18,2149.15 24277.85,2133.42 24318.54,2134.80 24331.21,2130.40 24343.27,2122.47 24377.57,2078.59 24483.18,1911.11 24509.39,1891.74 24522.58,1887.66 24543.97,1890.32 24567.99,1906.31 24598.12,1945.11 24601.34,1949.25 24688.19,2083.10 24740.49,2155.56 24794.91,2230.21 24839.87,2273.17 24888.16,2286.13 24950.28,2284.02 25030.30,2279.91">
            <param key="origId" value="32766801"/>
        </lane>
    </edge>
    <edge id="-32766801#0.13294" from="gneJ3" to="gneJ2" name="Strada Provinciale 19" priority="7" type="highway.secondary" shape="25030.38,2281.51 26026.13,2230.49 26131.31,2219.66 26182.98,2219.06 26221.84,2206.26 26264.52,2187.95 26542.08,1953.19 26615.47,1891.13 26663.17,1840.79 26708.23,1778.92 26823.92,1576.44 26854.51,1530.33 26867.91,1482.90">
        <lane id="-32766801#0.13294_0" index="0" disallow="tram rail_urban rail rail_electric ship" speed="30.60" length="2178.37" shape="25029.97,2273.52 26025.52,2222.51 26130.85,2211.66 26181.65,2211.07 26219.01,2198.77 26260.27,2181.07 26536.91,1947.08 26609.97,1885.31 26657.01,1835.66 26701.50,1774.57 26817.11,1572.24 26847.15,1526.95 26860.00,1481.49">
            <param key="origId" value="32766801"/>
        </lane>
        <lane id="-32766801#0.13294_1" index="1" disallow="tram rail_urban rail rail_electric ship" speed="30.60" length="2178.37" shape="25030.13,2276.72 26025.76,2225.70 26131.04,2214.86 26182.18,2214.27 26220.14,2201.77 26261.97,2183.82 26538.98,1949.53 26612.17,1887.64 26659.47,1837.71 26704.19,1776.31 26819.83,1573.92 26850.09,1528.30 26863.08,1482.36">
            <param key="origId" value="32766801"/>
        </lane>
        <lane id="-32766801#0.13294_2" index="2" disallow="tram rail_urban rail rail_electric ship" speed="30.60" length="2178.37" shape="25030.30,2279.91 26026.01,2228.89 26131.22,2218.06 26182.71,2217.46 26221.27,2204.76 26263.67,2186.57 26541.05,1951.97 26614.37,1889.97 26661.94,1839.76 26706.88,1778.05 26822.56,1575.60 26853.04,1529.65 26866.15,1483.23">
            <param key="origId" value="32766801"/>
        </lane>
    </edge>
    <edge id="-32766801#0.15480" from="gneJ2" to="gneJ1" name="Strada Provinciale 19" priority="7" type="highway.secondary" shape="26867.91,1482.90 26874.06,1427.51 26869.95,1380.79 26868.72,1099.87 26878.45,1083.10 26892.30,1070.93 26958.96,1048.00 26985.27,1031.36 27012.01,1005.55 27032.93,978.36 27067.43,912.06 27088.79,870.33 27144.19,759.53 27193.86,659.31 27244.46,561.68">
        <lane id="-32766801#0.15480_0" index="0" disallow="tram rail_urban rail rail_electric ship" speed="30.60" length="1062.70" shape="26860.05,1481.23 26866.02,1427.42 26861.95,1381.16 26860.71,1097.73 26872.19,1077.95 26888.21,1063.88 26955.47,1040.74 26980.30,1025.04 27006.03,1000.20 27026.16,974.04 27060.32,908.39 27081.65,866.72 27137.03,755.96 27186.72,655.69 27237.29,558.13">
            <param key="origId" value="32766801"/>
        </lane>
        <lane id="-32766801#0.15480_1" index="1" disallow="tram rail_urban rail rail_electric ship" speed="30.60" length="1062.70" shape="26863.23,1481.58 26869.24,1427.45 26865.15,1381.01 26863.91,1098.59 26874.69,1080.01 26889.84,1066.70 26956.87,1043.64 26982.29,1027.57 27008.42,1002.34 27028.87,975.77 27063.16,909.86 27084.51,868.16 27139.89,757.39 27189.58,657.14 27240.13,559.60">
            <param key="origId" value="32766801"/>
        </lane>
        <lane id="-32766801#0.15480_2" index="2" disallow="tram rail_urban rail rail_electric ship" speed="30.60" length="1062.70" shape="26866.41,1481.94 26872.45,1427.49 26868.35,1380.86 26867.12,1099.44 26877.20,1082.07 26891.48,1069.52 26958.26,1046.55 26984.28,1030.10 27010.81,1004.48 27031.58,977.50 27066.01,911.33 27087.36,869.61 27142.76,758.82 27192.43,658.59 27242.97,561.07">
            <param key="origId" value="32766801"/>
        </lane>
    </edge>
    <edge id="-32766801#0.16541" from="gneJ1" to="369046327" name="Strada Provinciale 19" priority="7" type="highway.secondary" shape="27244.46,561.68 27329.44,390.81 27413.00,218.22 27434.65,169.56 27446.87,128.17 27451.64,110.02 27456.73,90.70 27463.03,51.75 27467.08,0.00">
        <lane id="-32766801#0.16541_0" index="0" disallow="tram rail_urban rail rail_electric ship" speed="30.60" length="607.13" shape="27237.36,557.99 27322.26,387.29 27405.74,214.85 27427.13,166.79 27439.16,126.02 27443.90,107.98 27448.89,89.04 27455.08,50.80 27459.10,-0.62">
            <param key="origId" value="32766801"/>
        </lane>
        <lane id="-32766801#0.16541_1" index="1" disallow="tram rail_urban rail rail_electric ship" speed="30.60" length="607.13" shape="27240.23,559.41 27325.13,388.70 27408.65,216.20 27430.14,167.90 27442.25,126.88 27447.00,108.80 27452.03,89.70 27458.26,51.18 27462.29,-0.37">
            <param key="origId" value="32766801"/>
        </lane>
        <lane id="-32766801#0.16541_2" index="2" disallow="tram rail_urban rail rail_electric ship" speed="30.60" length="607.13" shape="27243.09,560.84 27328.00,390.11 27411.55,217.55 27433.15,169.01 27445.33,127.74 27450.09,109.61 27455.16,90.37 27461.44,51.56 27465.48,-0.12">
            <param key="origId" value="32766801"/>
        </lane>
    </edge>
    <edge id="-32766801#0.5951" from="gneJ10" to="gneJ9" name="Strada Provinciale 19" priority="7" type="highway.secondary" shape="20634.62,5811.00 20625.45,5756.82 20619.35,5682.30 20609.21,5579.84 20603.53,5503.48 20603.30,5459.29 20610.10,5405.48 20617.99,5369.06 20636.48,5311.27 20664.79,5249.31 20781.55,5019.39 20841.86,4899.26">
        <lane id="-32766801#0.5951_0" index="0" disallow="tram rail_urban rail rail_electric ship" speed="30.60" length="968.58" shape="20626.68,5812.00 20617.50,5757.82 20611.38,5683.02 20601.24,5580.53 20595.53,5503.80 20595.30,5458.81 20602.21,5404.13 20610.25,5366.99 20629.01,5308.38 20657.58,5245.84 20774.41,5015.78 20834.64,4895.80">
            <param key="origId" value="32766801"/>
        </lane>