<?xml version="1.0" encoding="UTF-8"?>
<routes>

  <vType id="egocar" vClass="passenger" carFollowModel="RedVisibility" accel="2" decel="3" apparentDecel="3" emergencyDecel="3" minGap="12" maxSpeed="30.6" speedFactor="1" speedDev="0" sigma="0" tau="1.0" length="4.3" width="1.8" color="1,1,1" imgFile="500x.png" maxVisibility="110" leaderDecel="3"/>
  <vType id="normalcar" vClass="passenger" maxSpeed="24" speedFactor="0.5" speedDev="0.1" sigma="0.5"  decel="3" leaderDecel="3"/>
  <vType id="coach" vClass="coach"  maxSpeed="24" speedFactor="0.5" speedDev="0.1" sigma="0.5"  decel="3" leaderDecel="3"/>
  <vType id="trailer" vClass="trailer"  maxSpeed="24" speedFactor="0.5" speedDev="0.1" sigma="0.5"  decel="3" leaderDecel="3"/>

<route id="rou0" edges="-32766801#0.0 -32766801#0.5951 -32766801#0.6917 -32766801#0.7862 -32766801#0.9038 -32766801#0.10613 -32766801#0.11730 -32766801#0.13294 -32766801#0.15480 -32766801#0.16541"/>

  <flow id="warmUp_0" begin="0" end="1000" type="normalcar" departLane="best" departSpeed="22" departPos="3500" from="-32766801#0.0" to="-32766801#0.16541" probability="0.01"/>

  <flow id="warmUp_1" begin="0" end="1000" type="coach" departLane="best" departSpeed="22" departPos="3500" from="-32766801#0.0" to="-32766801#0.16541" probability="0.007"/>

  <vehicle id="ego" type="egocar" route="rou0" depart="200" departSpeed="random" departLane="random" departPos="4000" color="1,0,0"/>

</routes>
